Circuit: *** SPICE deck for cell CCFF{lay} from library CCFF_22nmV3

